*HEADING
Missing *STEP - should lint as warning
*NODE
1, 0.0, 0.0, 0.0
2, 1.0, 0.0, 0.0
*ELEMENT, TYPE=B32R, ELSET=EALL
1, 1, 2
*MATERIAL, NAME=STEEL
*ELASTIC
200000.0, 0.3
