*HEADING
Cantilever beam - CalculiX static verification
*NODE, NSET=NALL
1, 0.0, 0.0, 0.0
2, 5.0, 0.0, 0.0
3, 10.0, 0.0, 0.0
*ELEMENT, TYPE=B32R, ELSET=EALL
1, 1, 2, 3
*BOUNDARY
1, 1, 6
*MATERIAL, NAME=STEEL
*ELASTIC
200000.0, 0.3
*BEAM SECTION, ELSET=EALL, MATERIAL=STEEL, SECTION=RECT
0.1, 0.1
0.0, 0.0, 1.0
*STEP
*STATIC
*CLOAD
3, 2, -10.0
*NODE PRINT, NSET=NALL
U
*NODE FILE
U
*EL FILE
S
*END STEP
