! Minimal Elmer SIF - heat equation on unit square
Header
  Mesh DB "." "mesh"
End

Simulation
  Max Output Level = 5
  Coordinate System = Cartesian
  Simulation Type = Steady State
  Steady State Max Iterations = 1
  Output Intervals = 1
  Post File = "case.vtu"
End

Constants
  Gravity(4) = 0 -1 0 9.82
  Stefan Boltzmann = 5.67e-8
End

Body 1
  Equation = 1
  Material = 1
  Body Force = 1
End

Material 1
  Density = 1.0
  Heat Conductivity = 1.0
End

Body Force 1
  Heat Source = 1.0
End

Equation 1
  Active Solvers(1) = 1
End

Solver 1
  Equation = Heat Equation
  Variable = Temperature
  Procedure = "HeatSolve" "HeatSolver"
  Linear System Solver = Iterative
  Linear System Iterative Method = BiCGStab
  Linear System Max Iterations = 500
  Linear System Convergence Tolerance = 1.0e-8
End

Boundary Condition 1
  Target Boundaries(4) = 1 2 3 4
  Temperature = 0.0
End
